/*--------------------------------*- C++ -*----------------------------------*\
  =========                 |
  \\      /  F ield         | OpenFOAM: The Open Source CFD Toolbox
   \\    /   O peration     | Website:  https://openfoam.org
    \\  /    A nd           | Version:  9
     \\/     M anipulation  |
\*---------------------------------------------------------------------------*/
FoamFile
{
    version     2.0;
    format      ascii;
    class       dictionary;
    object      topoSetDict;
}
// * * * * * * * * * * * * * * * * * * * * * * * * * * * * * * * * * * * * * //

actions
(
    {
        name    bedFaces;
        type    faceSet;
        action  new;
        source  patchToFace;
        sourceInfo
        {
            name "terrain_MV12_(lower_river|inner_gravel|outer_gravel|vegetation)";
        }
    }
    {
        name    lowestLayerCells;
        type    cellSet;
        action  new;
        source  faceToCell;
        sourceInfo
        {
            set     bedFaces;
            option  any;
        }
    }
);

// ************************************************************************* //
